$DATA1 SOURCE='PrimeSim HSPICE' VERSION='T-2022.06-SP2-1 linux6' PARAM_COUNT=0
.TITLE '* nand gate'
 tphl             tplh             temper           alter#          
  5.130e-10        3.427e-10         25.0000        1               
