$DATA1 SOURCE='PrimeSim HSPICE' VERSION='T-2022.06-SP2-1 linux6' PARAM_COUNT=0
.TITLE '* and gate'
 tphl             tplh             temper           alter#          
  9.121e-10        1.258e-09         27.0000        1               
