$DATA1 SOURCE='PrimeSim HSPICE' VERSION='T-2022.06-SP2-1 linux6' PARAM_COUNT=0
.TITLE '* and gate'
 tphl             tplh             temper           alter#          
  3.261e-10        3.703e-10         27.0000        1               
