$DATA1 SOURCE='PrimeSim HSPICE' VERSION='T-2022.06-SP2-1 linux6' PARAM_COUNT=0
.TITLE '* and gate'
 tphl             tplh             temper           alter#          
  4.965e-10        2.878e-10         27.0000        1               
