$DATA1 SOURCE='PrimeSim HSPICE' VERSION='T-2022.06-SP2-1 linux6' PARAM_COUNT=0
.TITLE '* not gate'
 tphl             tplh             temper           alter#          
  4.362e-09        2.695e-09         27.0000        1               
