$DATA1 SOURCE='PrimeSim HSPICE' VERSION='T-2022.06-SP2-1 linux6' PARAM_COUNT=0
.TITLE '* not gate'
 tphl             tplh             temper           alter#          
  9.782e-09        6.788e-09         27.0000        1               
