$DATA1 SOURCE='PrimeSim HSPICE' VERSION='T-2022.06-SP2-1 linux6' PARAM_COUNT=0
.TITLE '* not gate'
 tphl             tplh             tran_up          tran_down       
 temper           alter#          
    failed           failed           failed           failed       
   27.0000        1               
